Version 4
SHEET 1 880 680
WIRE 416 -112 32 -112
WIRE 32 -48 32 -112
WIRE 416 80 416 -112
WIRE 512 80 416 80
WIRE 512 176 416 176
WIRE 416 240 416 176
WIRE 368 320 128 320
WIRE 128 368 128 320
WIRE 416 368 416 336
FLAG 128 448 0
FLAG 416 368 0
FLAG 32 32 0
SYMBOL voltage 128 352 R0
WINDOW 123 0 0 Left 0
WINDOW 39 0 0 Left 0
SYMATTR InstName V1
SYMATTR Value PULSE(0 5 0 1u 1u 1m 2m 1000)
SYMBOL Optos\\PC817A 608 128 R0
SYMATTR InstName U1
SYMBOL nmos 368 240 R0
SYMATTR InstName M1
SYMBOL voltage 32 -64 R0
WINDOW 123 0 0 Left 0
WINDOW 39 0 0 Left 0
SYMATTR InstName V2
SYMATTR Value 5
TEXT 94 472 Left 2 !.tran 1
